data_Si64_tetragonal
_cell_length_a    10.0
_cell_length_b    10.0
_cell_length_c    15.0
_cell_angle_alpha    90.00
_cell_angle_beta     90.00
_cell_angle_gamma    90.00
_symmetry_space_group_name_H-M          'P 1'
_chemical_formula_sum                   'Si64'
loop_
_symmetry_equiv_pos_site_id
_symmetry_equiv_pos_as_xyz
1  'x, y, z'
loop_
_atom_site_label
_atom_site_type_symbol
_atom_site_fract_x
_atom_site_fract_y
_atom_site_fract_z
_atom_site_B_iso_or_equiv
_atom_site_occupancy
Si1 Si 0.0000 0.0000 0.0000 1.0 1.000
Si2 Si 0.2500 0.2500 0.0667 1.0 1.000
Si3 Si 0.5000 0.0000 0.1333 1.0 1.000
Si4 Si 0.7500 0.2500 0.2000 1.0 1.000
Si5 Si 0.0000 0.5000 0.0667 1.0 1.000
Si6 Si 0.2500 0.7500 0.1333 1.0 1.000
Si7 Si 0.5000 0.5000 0.2000 1.0 1.000
Si8 Si 0.7500 0.7500 0.2667 1.0 1.000
Si9 Si 0.1250 0.1250 0.0333 1.0 1.000
Si10 Si 0.3750 0.1250 0.1000 1.0 1.000
Si11 Si 0.6250 0.1250 0.1667 1.0 1.000
Si12 Si 0.8750 0.1250 0.2333 1.0 1.000
Si13 Si 0.1250 0.3750 0.1000 1.0 1.000
Si14 Si 0.3750 0.3750 0.1667 1.0 1.000
Si15 Si 0.6250 0.3750 0.2333 1.0 1.000
Si16 Si 0.8750 0.3750 0.3000 1.0 1.000
Si17 Si 0.1250 0.6250 0.1667 1.0 1.000
Si18 Si 0.3750 0.6250 0.2333 1.0 1.000
Si19 Si 0.6250 0.6250 0.3000 1.0 1.000
Si20 Si 0.8750 0.6250 0.3667 1.0 1.000
Si21 Si 0.1250 0.8750 0.2333 1.0 1.000
Si22 Si 0.3750 0.8750 0.3000 1.0 1.000
Si23 Si 0.6250 0.8750 0.3667 1.0 1.000
Si24 Si 0.8750 0.8750 0.4333 1.0 1.000
Si25 Si 0.0000 0.2500 0.0333 1.0 1.000
Si26 Si 0.2500 0.0000 0.1000 1.0 1.000
Si27 Si 0.5000 0.2500 0.1667 1.0 1.000
Si28 Si 0.7500 0.0000 0.2333 1.0 1.000
Si29 Si 0.0000 0.7500 0.1000 1.0 1.000
Si30 Si 0.2500 0.5000 0.1667 1.0 1.000
Si31 Si 0.5000 0.7500 0.2333 1.0 1.000
Si32 Si 0.7500 0.5000 0.3000 1.0 1.000
Si33 Si 0.0625 0.0625 0.0208 1.0 1.000
Si34 Si 0.3125 0.0625 0.0875 1.0 1.000
Si35 Si 0.5625 0.0625 0.1542 1.0 1.000
Si36 Si 0.8125 0.0625 0.2208 1.0 1.000
Si37 Si 0.0625 0.3125 0.0875 1.0 1.000
Si38 Si 0.3125 0.3125 0.1542 1.0 1.000
Si39 Si 0.5625 0.3125 0.2208 1.0 1.000
Si40 Si 0.8125 0.3125 0.2875 1.0 1.000
Si41 Si 0.0625 0.5625 0.1542 1.0 1.000
Si42 Si 0.3125 0.5625 0.2208 1.0 1.000
Si43 Si 0.5625 0.5625 0.2875 1.0 1.000
Si44 Si 0.8125 0.5625 0.3542 1.0 1.000
Si45 Si 0.0625 0.8125 0.2208 1.0 1.000
Si46 Si 0.3125 0.8125 0.2875 1.0 1.000
Si47 Si 0.5625 0.8125 0.3542 1.0 1.000
Si48 Si 0.8125 0.8125 0.4208 1.0 1.000
Si49 Si 0.1875 0.0625 0.0542 1.0 1.000
Si50 Si 0.4375 0.0625 0.1208 1.0 1.000
Si51 Si 0.6875 0.0625 0.1875 1.0 1.000
Si52 Si 0.9375 0.0625 0.2542 1.0 1.000
Si53 Si 0.1875 0.3125 0.1208 1.0 1.000
Si54 Si 0.4375 0.3125 0.1875 1.0 1.000
Si55 Si 0.6875 0.3125 0.2542 1.0 1.000
Si56 Si 0.9375 0.3125 0.3208 1.0 1.000
Si57 Si 0.1875 0.5625 0.1875 1.0 1.000
Si58 Si 0.4375 0.5625 0.2542 1.0 1.000
Si59 Si 0.6875 0.5625 0.3208 1.0 1.000
Si60 Si 0.9375 0.5625 0.3875 1.0 1.000
Si61 Si 0.1875 0.8125 0.2542 1.0 1.000
Si62 Si 0.4375 0.8125 0.3208 1.0 1.000
Si63 Si 0.6875 0.8125 0.3875 1.0 1.000
Si64 Si 0.9375 0.8125 0.4542 1.0 1.000
