data_Si
_cell_length_a 5.430
_cell_length_b 5.430
_cell_length_c 5.430
_cell_angle_alpha 90
_cell_angle_beta 90
_cell_angle_gamma 90
_symmetry_space_group_name_H-M 'F d -3 m'
loop_
  _atom_site_label
  _atom_site_type_symbol
  _atom_site_fract_x
  _atom_site_fract_y
  _atom_site_fract_z
  Si  Si   0.000     0.000     0.000
  Si  Si   0.250     0.250     0.250
  Si  Si   0.500     0.500     0.000
  Si  Si   0.750     0.750     0.250
  Si  Si   0.000     0.500     0.500
  Si  Si   0.250     0.000     0.500
  Si  Si   0.500     0.000     0.750
  Si  Si   0.750     0.250     0.500
  Si  Si   0.125     0.125     0.125
  Si  Si   0.375     0.375     0.125
  Si  Si   0.625     0.625     0.125
  Si  Si   0.875     0.875     0.125
  Si  Si   0.125     0.375     0.375
  Si  Si   0.375     0.125     0.375
  Si  Si   0.625     0.875     0.375
  Si  Si   0.875     0.625     0.375
  Si  Si   0.125     0.625     0.625
  Si  Si   0.375     0.875     0.625
  Si  Si   0.625     0.125     0.625
  Si  Si   0.875     0.375     0.625
  Si  Si   0.000     0.000     0.500
  Si  Si   0.500     0.500     0.500
  Si  Si   0.000     0.500     0.000
  Si  Si   0.500     0.000     0.000
  Si  Si   0.250     0.250     0.500
  Si  Si   0.750     0.750     0.500
  Si  Si   0.500     0.250     0.250
  Si  Si   0.250     0.750     0.250
